Circuit: * C:\Users\JacobFaseler\Desktop\LiPoChar Source\SPICE\ActiveLoad\Rev01\ActiveLoad_Rev01.asc

Direct Newton iteration for .op point succeeded.

Date: Sat Feb 12 15:36:37 2022
Total elapsed time: 0.172 seconds.

tnom = 27
temp = 27
method = trap
totiter = 16986
traniter = 16943
tranpoints = 8399
accept = 6904
rejected = 1495
matrix size = 45
fillins = 46
solver = Normal
Matrix Compiler1: 4.24 KB object code size  1.4/0.5/[0.3]
Matrix Compiler2: 4.31 KB object code size  0.4/0.6/[0.4]

